512
16.500000000 0.0 0.0 0.0 16.500000000 0.0 0.0 0.0 16.500000000
H        8.39052000       3.36462000      14.28406000
H       13.70768000       9.46225000       4.37169000
H        2.89886000       6.52303000      11.23734000
H        0.89108000      15.56617000       9.83529000
H       14.46059000       9.82248000       5.68186000
H       13.60669000      15.60031000      14.22046000
H       16.25654000      13.95020000       5.74116000
H       10.05743000      12.17754000      11.07889000
H       11.13659000      11.53131000      15.78963000
H        2.49878000       0.09094000      11.21953000
H        9.32231000       1.73089000       2.56565000
H        5.84650000      12.67043000       4.81777000
H       16.40127000      15.71278000      13.09930000
H       16.29154000       6.99808000      14.46059000
H        2.38442000      12.42489000      12.66146000
H        1.34520000       7.44228000       8.73221000
H        1.59766000       3.72829000       6.16807000
H        1.01954000      14.12400000       9.03162000
H        8.03782000       8.46061000      14.46086000
H        4.35078000       3.85727000       3.19838000
H        1.42557000      12.51113000       9.46911000
H       13.88729000       7.67122000       2.54583000
H        5.94197000      15.87200000      15.71175000
H       15.91121000       2.46852000      15.95603000
H        0.76326000       9.52484000       2.72585000
H        7.12025000      11.60167000       5.10612000
H        0.73836000      14.60399000      13.11978000
H        7.79370000       7.96487000       6.33189000
H        5.52571000       4.02804000      13.64314000
H       16.16138000      14.68242000      10.75204000
H        0.05049000       1.50626000       2.06700000
H        5.60020000      13.79534000       9.32834000
H       14.16929000       4.81321000       4.07355000
H       10.88638000       7.91471000      15.49505000
H       12.35181000       6.92327000       3.24911000
H        2.76866000      13.91873000      11.84035000
H        7.05113000       3.25910000      13.37169000
H        1.10421000      14.89673000       3.86609000
H        0.13670000       8.34780000      14.88100000
H        8.14878000      10.03516000      13.66217000
H        2.33224000      13.27227000       9.48984000
H        7.18190000      15.34476000       9.85141000
H       10.49773000      12.71731000      14.76320000
H       13.82998000       7.89798000       0.69573000
H        4.44825000       1.38172000       3.07601000
H       13.28165000       4.27860000      11.71434000
H        8.91235000       2.90497000       2.63877000
H        1.26072000       1.63600000       2.94598000
H       14.30141000      10.98580000       2.10232000
H        1.37403000      13.50337000       6.80669000
H       11.37326000       1.41944000      14.55141000
H        1.81851000       1.61290000       1.36068000
H       11.94104000       9.56598000      10.27942000
H        2.46034000       3.12043000       3.80191000
H        5.48533000      10.67051000       2.20196000
H        7.31495000       2.59277000      12.47734000
H        2.21623000       7.41174000      10.48339000
H        8.85540000       6.47159000       6.29558000
H        6.25785000       4.50573000      15.51724000
H        6.36610000       6.37496000      15.33128000
H        1.54387000      13.58329000       4.92061000
H        0.57192000       8.57592000       7.72202000
H        1.95401000      13.55165000      13.41232000
H       13.30430000       1.83875000      14.56919000
H       14.91032000      14.28121000       4.60683000
H        9.07129000      16.19634000       4.58181000
H        0.48389000       8.87123000       1.27906000
H       13.59501000      10.04065000      10.93016000
H       13.61002000       5.85946000      12.53342000
H        5.52752000      11.68404000       6.30301000
H        1.31768000       2.40262000       4.69973000
H       10.18683000       6.92472000       7.64379000
H       12.80600000      16.05470000       2.63492000
H        2.65223000       1.14448000      12.69829000
H       12.19787000       1.62254000      13.50534000
H       14.26912000      13.83397000       2.10405000
H       13.80747000       6.37439000       3.82382000
H        7.16260000       6.34428000       5.84873000
H       13.31444000       9.23666000       2.11669000
H       10.57828000       2.50104000       3.59048000
H        5.97525000       5.88156000       0.91211000
H        2.99471000       2.56746000       5.30158000
H        3.66360000       0.07759000       3.43999000
H        1.13889000       7.20809000      15.05433000
H        1.23218000      14.12802000      11.01764000
H        8.68251000      16.46191000      16.42981000
H        6.55874000      15.50124000      14.34601000
H        2.48728000       2.83073000      14.90807000
H       16.23753000       8.26664000       9.03262000
H       16.27259000       9.50628000       9.41529000
H       15.59312000      14.11400000      13.32182000
H       12.28761000       5.81186000      12.43580000
H        2.46307000       3.60119000       0.06374000
H        2.86496000       6.05993000       9.65897000
H        9.33645000       7.54159000      15.32602000
H        5.78821000      15.93372000       9.05078000
H        8.85721000       1.93882000       3.96158000
H        6.13577000       4.23301000       1.22470000
H        0.88902000      16.01407000       1.62031000
H        2.32348000       1.77304000      11.35426000
H        1.75310000       6.50640000       2.89008000
H        6.46822000       1.04745000      14.23254000
H        0.64950000      13.46348000       3.46675000
H       13.44054000       7.45657000       4.23143000
H       14.50527000      14.71373000       5.88864000
H        6.56403000       6.04564000      13.67815000
H        4.72564000       4.94063000       1.30213000
H        1.33535000       1.98488000       6.35584000
H        5.52188000      11.64596000       0.48007000
H       13.19091000       6.32589000      10.61336000
H       15.59193000       5.45804000      13.72302000
H       14.04678000      16.09841000       3.44478000
H        9.82648000      11.17136000      15.29899000
H       12.37295000      12.59722000      10.79925000
H        6.31784000      12.97439000       6.09627000
H        4.16143000      10.99997000       8.23409000
H        2.83925000       1.59473000       3.32196000
H        5.11799000       9.16769000       1.84519000
H       15.27158000       8.67183000      10.57560000
H        2.09143000      10.44506000       0.25756000
H        3.20184000       5.53134000       2.39356000
H       14.99280000       9.11052000       8.66420000
H       13.37183000       6.08881000       5.82874000
H       10.15051000      12.55368000      16.25249000
H        3.20775000       4.83097000       3.91787000
H       13.15410000       8.47078000       7.93199000
H        7.02550000      14.95067000       8.26684000
H        4.35682000      10.10430000      10.04111000
N       16.35914000      14.90837000      12.86109000
N       13.93824000      13.97576000      11.36792000
N       15.20229000       5.08544000      11.21393000
N        7.45164000      10.14767000       9.10516000
N        0.13619000       9.90047000      11.87198000
N        0.18598000      15.29874000       1.59108000
N       12.46327000      11.85896000       4.29829000
N        6.74162000       8.02834000       0.85389000
N       15.22587000      14.00492000       5.59677000
N       15.72251000      14.41291000       8.04347000
N       14.30700000       2.90116000      12.26192000
N        8.32482000       8.06980000       3.90147000
N       13.93819000       9.04120000       5.16901000
N        7.72224000       8.03604000      11.90272000
N        3.68373000      13.44937000       4.50322000
N        4.21828000       4.06102000      11.19314000
N        3.56514000       4.42062000      14.63326000
N        7.02721000      10.87301000      16.43942000
N       13.82206000      11.87965000       1.82843000
N        7.33927000       0.83879000      14.68365000
N       10.67759000       3.90502000       5.97571000
N       11.70695000      15.99567000      12.39922000
N        3.08910000       9.95247000      14.65882000
N        6.35414000      14.89764000       9.15497000
N       13.81944000      15.92695000       8.90221000
N       11.21271000      13.29468000       7.25591000
N       16.40820000       4.98968000       5.89950000
N       15.45195000      11.65609000      10.25841000
N        5.56119000      12.75304000       3.27164000
N        1.64604000      13.21801000       8.87807000
N        5.61607000       4.76538000       0.68191000
N       12.65083000       6.88869000      14.42570000
N        7.48374000       1.85473000      16.47351000
N        9.24424000       2.27395000       3.23673000
N       14.23531000       8.84885000       1.62368000
N        9.56163000       0.03352000      10.63569000
N       14.51911000      13.29017000      14.25895000
N       14.57319000      13.96494000      16.35084000
N        1.93838000       4.80027000       1.38794000
N        2.51567000       7.22267000       0.57212000
N        1.14987000      10.00978000       0.16111000
N        5.67803000       0.10577000       1.78703000
N        7.56878000      10.71914000      11.99930000
N       16.16148000       4.18381000       2.72271000
N        5.26300000       5.11033000       3.74152000
N        9.27624000       8.45699000      10.07573000
N       11.62683000      12.51773000      11.48554000
N        1.06620000       2.02906000       2.00920000
N        6.97380000      12.97505000      11.47732000
N        0.74497000       0.61330000      15.85404000
N       13.30291000       7.15383000       3.37697000
N        9.47457000      11.66832000       4.46918000
N        8.33871000      16.03042000       0.89866000
N        7.36668000       1.76685000      11.84717000
N        2.36057000       8.20330000       3.68007000
N        8.84388000       0.28931000      13.44027000
N        1.88751000       2.65658000       5.47713000
N        1.65165000       5.97876000       6.35739000
N        1.67446000      10.01263000       9.33825000
N        8.82078000      14.40255000      15.51979000
N        6.32223000       4.50384000      11.42610000
N        2.94997000      15.84731000      14.60003000
N       13.57542000       1.85233000       8.38891000
N        8.17115000      10.83625000       6.41760000
N        5.60587000      13.41301000       7.47317000
N        3.61418000       1.03027000       3.59828000
N       10.77813000       7.37936000       6.87514000
N        9.29104000       3.43791000      13.88670000
N        8.35808000       9.35765000      14.48365000
N       10.53093000       2.41549000      16.19769000
N        5.54391000       5.27390000       6.34147000
N        6.26654000       4.08044000      10.33133000
N        3.82902000      12.50221000      15.82250000
N        6.43534000       3.99824000      13.61120000
N       13.04504000       4.80949000       7.27877000
N       15.03988000      11.77162000      12.49762000
N       10.99707000      15.03803000       0.38595000
N       14.85557000      10.15355000      15.13711000
N        8.16565000      15.46338000       7.66231000
N       11.42126000       3.07114000      12.33588000
N        2.84044000       7.14931000      16.07170000
N       13.66497000      15.22444000       8.03479000
N       12.21800000       2.76436000      11.69449000
N        4.64579000       8.09590000       2.96620000
N        0.51413000       1.80806000       7.75901000
N       14.97887000       4.61819000      13.72133000
N       13.00693000      15.32282000       5.43189000
N        0.84271000       2.90577000      13.33814000
N        0.57167000       6.87932000      11.25504000
N        8.24743000      13.36404000       5.87497000
N        4.96352000      12.28244000      10.96204000
N        9.68666000       1.85549000       6.24884000
N        5.14136000       7.47344000      15.52234000
N        5.35424000       1.21295000      10.17764000
N        8.59405000       0.45977000       1.50245000
N       11.25180000       6.18017000       2.71579000
N        5.15664000       2.34440000       5.79678000
N        0.45568000       5.26589000      15.10207000
N       10.06376000      15.80042000       4.49886000
N       15.50273000       2.38149000       6.40152000
N        2.30576000       5.75205000       2.57640000
N        0.61291000      14.90799000      10.61957000
N       14.02327000       3.18496000       2.88563000
N       12.52949000       1.22128000      14.27718000
N        6.98987000      15.87113000      15.26207000
N        0.90459000       4.58604000       8.05495000
N        7.19466000      15.91080000      12.02681000
N        0.31786000       7.22429000       3.69925000
N       10.26558000      11.93268000      15.51840000
N        4.15939000       5.31544000      14.40273000
N        6.87886000       8.02132000      12.61523000
N        5.93965000       9.68837000       4.73706000
N        8.35666000       5.72209000       3.46962000
N        2.42712000       3.36364000      10.29344000
N       13.27948000       2.94229000       6.24547000
N       15.81061000      16.17370000      15.38413000
N        1.85540000       9.17203000       3.82996000
N       15.43401000       4.27664000      10.48832000
N        2.51177000       6.55231000      10.31957000
N       10.07605000       9.55399000      12.55996000
N       11.30247000       9.49722000       1.90924000
N       10.60795000      11.25252000       8.59798000
N       13.20684000       7.18353000       8.62995000
N        4.36986000       7.14176000       2.25128000
N       10.26038000      11.93556000       3.65391000
N       11.93349000       4.84927000      16.41706000
N        5.87213000      11.63127000       3.03625000
N       10.51628000       9.98453000      11.52472000
N        1.41027000      11.13849000      13.79336000
N       13.88417000      14.49994000      10.39171000
N       15.95854000       0.75275000      10.38378000
N        6.42923000       9.98105000       9.60500000
N        0.27579000      12.21725000       7.14902000
N       15.54994000      15.38523000       2.20678000
N       13.28174000      12.75218000       8.70345000
N        7.74519000      12.67601000      13.67375000
N        3.04765000      13.12252000       1.47264000
N        0.18802000      14.99250000       7.74340000
N       12.18277000       1.15026000      10.69856000
N        9.33733000       7.92943000       4.34013000
N        7.78859000      12.24632000       8.22871000
N        2.84556000       9.74226000      11.36410000
N        3.58962000      12.78388000       5.35787000
N        3.90412000       3.98678000      12.25437000
N       15.98580000       0.86109000       3.82235000
N        5.28235000      13.79812000       0.32185000
N       12.65778000      11.64600000       1.45601000
N        4.29798000       5.27484000       8.73702000
N        6.15268000       2.26472000       3.06791000
N       12.61835000      15.60775000      12.92131000
N        3.21966000       9.43393000      15.61242000
N        8.87919000      12.46212000       1.89077000
N       11.05158000      14.81861000       9.23331000
N       10.71397000      12.38991000       6.86333000
N       15.38870000       4.72253000       5.45799000
N       16.38701000      11.86677000       9.72292000
N       11.40365000      14.77202000       2.63405000
N        2.95977000       1.60043000       7.79448000
N        2.27645000      16.11080000       0.42794000
N       13.08463000       7.02361000      15.45107000
N        4.84476000       1.40255000      13.16354000
N        8.70964000       4.01924000       1.34068000
N       15.25946000       9.28952000       2.24466000
N        8.85772000       0.41402000       9.83411000
N       12.55537000      10.19149000      15.92633000
N       13.64102000      14.32048000       0.27465000
N        3.11540000       4.23965000       0.95063000
N       10.27123000       7.51382000      12.49593000
N        0.28142000      10.85410000      16.48948000
N        5.15374000      15.55195000       1.82401000
N        8.49356000      10.97637000      11.25695000
N        0.16961000       3.42859000       3.48137000
N       14.71548000       4.72161000       0.50835000
N        9.41094000       8.70939000       8.98324000
N       11.98009000      12.02067000      12.59211000
N       10.28331000       5.52092000      10.14792000
N        7.92930000      13.35940000      11.19068000
N        1.32933000       1.48692000      15.40137000
N       14.71255000      11.18686000       4.34604000
N       11.51006000       9.01171000       4.12738000
N        6.94119000      14.88675000       2.91794000
N        8.41915000       2.22701000      11.16290000
N        3.52561000      10.71959000       6.50372000
N        9.88344000       0.51541000      13.45647000
N        1.33849000      13.45327000      16.29875000
N        2.10783000       5.70537000       5.27624000
N        2.56538000      10.36932000       8.79981000
N        9.45404000      15.39342000      15.33748000
N        6.45986000       6.71485000       9.30634000
N        3.76899000      15.28056000      14.05014000
N        3.83932000       7.03471000       7.48953000
N        5.13839000       9.97302000      13.20904000
N        4.81137000      13.76075000       8.14728000
N       11.23573000       1.37256000       1.50259000
N       11.50789000       6.39037000       6.41583000
N        9.35990000       4.58870000      14.31371000
N        9.47842000       9.39797000      14.95315000
N       12.47800000       8.54718000      12.24939000
N        4.99475000       4.36304000       6.35725000
N        5.08074000       6.88942000      11.21288000
N        1.92898000       5.31168000      12.63203000
N        6.91950000       4.63681000      14.91012000
N        7.84661000       4.35706000       5.55451000
N       14.14815000      11.05245000      12.25705000
N       11.78351000      15.69716000      16.15779000
N       15.01435000       9.14239000      15.55507000
N        9.10654000      16.02460000       8.15575000
N        6.69591000       2.82915000       8.16130000
N       14.63255000       8.38877000      12.32852000
N       11.76066000       0.55340000       7.46852000
N        9.20157000       4.87715000      12.18171000
N        4.60588000       9.93190000       1.66357000
N       16.22058000       1.53292000       8.55075000
N        0.16632000       3.14721000      16.16400000
N       13.36732000      15.16108000       4.30396000
N        0.25242000       2.23857000      12.62542000
N       16.25795000       6.83657000      10.49675000
N        5.12950000      15.46666000       4.71686000
N        5.07298000      12.64542000       9.88124000
N        8.76549000       1.33418000       5.52494000
N        5.41834000       8.52132000      15.23420000
N        4.30797000       0.84434000      10.43474000
N       12.19319000       4.04666000       2.72099000
N       10.20706000       6.47987000       2.18070000
N        4.92024000       1.31705000       5.38229000
N       16.30001000       7.29115000       0.61846000
N       10.70866000       0.44380000       4.47854000
N       15.34540000       1.23118000       6.15308000
N        4.33350000       2.75361000      16.49622000
N        3.36039000      15.50485000      11.52131000
N       14.07597000       2.58160000       3.81295000
N       15.04017000       0.94894000       1.44007000
N       10.13410000      14.20743000      12.27218000
N       16.35863000       4.95146000       8.22647000
N        5.91005000       0.50410000       7.19031000
N       15.89429000       7.18283000       2.95795000
N        6.05980000      11.48667000      15.98392000
N       12.56211000       3.04240000       0.01443000
N        2.62172000       7.54588000      12.91415000
N        7.39921000       9.27522000       2.72508000
N        9.04673000       4.96453000       3.97576000
N        2.48558000      15.15897000       5.87367000
N       13.01762000       1.93514000       5.67146000
N       15.27849000       0.21438000      14.59956000
N        0.41829000       8.72420000       5.88553000
N       12.64956000       4.15371000      14.15869000
N        5.12056000       9.07144000       7.96544000
N       11.52881000      13.71927000      14.87334000
N       10.25946000       9.79687000       2.36057000
N       10.93884000      10.26130000       8.93197000
N       13.73004000       7.16986000       9.70545000
N        3.49186000      11.25498000       3.73307000
N        1.16050000      11.00375000       3.76070000
N       14.56570000       1.85162000      12.60675000
N       16.24138000      11.83150000       2.22041000
N       10.13035000       3.37808000       8.73163000
N        0.70865000      11.93315000      13.99538000
N       12.75184000       8.70613000       6.19880000
N       14.91948000       0.87430000      10.67745000
N        5.46222000       9.74071000      10.43204000
N        0.85081000      12.85913000       6.47367000
N       14.48307000      14.82816000       2.35201000
N       13.32854000      11.70211000       8.40694000
N        8.11511000      11.73760000      14.21179000
N        3.49752000      13.95799000       2.06396000
N        1.06634000      15.74744000       7.50616000
N       11.79069000       0.63031000       9.81091000
N        7.82221000       6.93269000       6.59707000
N        8.36636000      12.96229000       8.89469000
N        3.14937000      10.95993000      11.35674000
N        2.53053000      13.38682000      12.71647000
N        0.41393000       7.73870000       8.27919000
N        0.19853000       0.48411000       4.57473000
N        6.16166000      13.94549000      16.09001000
N       11.64308000      11.48955000       1.07180000
N        3.73249000       4.48329000       8.19336000
N        6.51573000       2.87059000       3.97888000
N       13.78490000      15.40439000      13.02011000
N        0.74737000       9.25386000      12.52678000
N        8.29138000      12.33090000       0.93648000
N       10.79361000      13.81073000       9.54880000
N        8.30697000      13.90763000       5.00871000
N       14.23735000       5.22583000       5.08139000
N       16.12146000      11.51111000       7.86110000
N       11.82389000      13.74472000       2.57015000
N        4.03882000       1.96254000       7.79371000
N        3.39405000      16.45887000       0.34435000
N       14.03236000       7.22825000      16.27723000
N        4.96469000       0.93463000      14.20025000
N        8.99627000       3.87255000       0.26969000
N       16.46981000       9.18573000       2.06103000
N        1.41012000      13.84575000       3.91065000
N       12.09354000       9.43796000      15.09906000
N        2.22406000       0.86947000      11.90452000
N        0.63668000       7.76997000      14.33268000
N        9.64849000       7.09581000      13.46495000
N       15.74660000      11.34192000      16.42636000
N        3.30790000       3.79806000       3.75559000
N        9.10748000      11.82459000      10.74287000
N        2.91907000      12.12083000      15.25973000
N       14.14812000       4.94367000       1.46328000
N        6.36238000      12.17730000       5.63948000
N       11.95456000      11.54613000      13.62873000
N       10.95784000       6.00827000       9.40793000
N        8.67927000      10.25159000       7.24281000
N        2.43713000       1.91430000      15.14175000
N       15.10083000      12.17137000       4.46085000
N       11.04993000       9.38384000       5.16456000
N        7.99497000      15.20027000       3.12533000
N        9.16381000       2.90642000      10.65241000
N        3.45100000       9.76970000       5.78568000
N       10.54782000       2.43750000      15.18432000
N        0.78034000      14.08708000      15.52535000
N        3.74480000       7.75803000       5.47743000
N        3.66931000      11.06515000       9.19481000
N        7.94742000      10.22584000       0.14980000
N        7.51999000       6.45929000       9.53671000
N        5.15959000      13.27102000      13.88218000
N        2.95748000       7.45507000       7.97157000
N        5.19698000      10.80574000      14.02200000
N        4.75741000       7.44763000       5.43580000
N       12.37558000       1.44956000       1.44347000
N       12.38665000       6.82666000       5.45028000
N        9.75149000       5.54041000      14.95695000
N        9.87107000       8.47968000      15.72995000
N       12.04736000       7.85300000      11.42068000
N       15.03441000       7.37287000       6.20872000
N        4.68311000       7.62355000      10.46184000
N        0.81462000       5.54977000      12.60197000
N        7.07244000       6.11584000      14.64836000
N        8.33107000       3.72937000       6.32846000
N       13.13426000      10.61669000      11.45933000
N       12.81092000      16.00821000      15.75054000
N        5.15379000      13.85267000      12.94671000
N       13.40390000       9.10444000       7.19174000
N        7.64637000       3.24357000       8.51105000
N       14.52109000       7.45163000      12.93144000
N       11.29502000      16.24972000       6.86268000
N        8.44438000       5.66181000      11.98654000
N        3.47266000      10.09698000       1.12700000
N        3.20243000      16.00096000       9.06846000
N        0.25637000       4.28253000      15.50295000
N        3.58744000      15.84005000       8.02373000
N       13.04650000       5.32500000      11.90102000
N       15.43243000       9.17142000       9.71236000
N        5.22016000      14.81491000       5.57325000
N        6.45996000      15.78004000      12.80145000
N        7.96532000       0.41056000       5.47529000
N        6.54536000       2.36693000       0.25864000
N       11.01366000       3.98494000       4.92977000
N       11.29718000       3.78366000       2.02720000
N        9.58647000       7.30783000       1.76259000
N       13.79828000       5.00077000       8.10083000
N       16.39714000       6.33291000       1.24292000
N       11.46625000       1.28149000       4.34778000
N       15.01627000       0.09184000       6.53639000
N        4.03350000       2.39755000       1.17264000
N        4.50222000      15.49858000      11.54171000
N       13.18507000       0.19486000       3.28851000
N       14.14888000       0.61899000       0.88952000
N        9.21586000      14.65605000      12.46871000
N        1.51286000       3.80474000       9.91366000
N        6.37612000       0.23048000       8.20002000
N       14.88657000       7.56635000       7.32688000
N        6.88120000       9.22066000       5.02018000
N       13.78956000       3.02176000       0.15445000
N        3.60382000       7.88653000      13.52967000
N        8.21477000      10.06852000       2.61442000
N        6.84764000       7.01391000       1.39319000
N        2.39261000      16.19771000       5.51812000
N       13.07735000       2.62873000       9.10281000
N       14.34682000      12.38354000      14.95224000
N       16.39885000       9.75905000       5.75232000
N       13.81847000       4.65639000      14.12459000
N        6.01298000       8.77748000       7.40297000
N       12.39214000      14.09335000      14.43922000
N       12.01628000      11.64039000       5.36798000
N       11.73023000       9.00014000       9.21558000
N        6.22617000       5.83417000       3.64976000
N        3.08439000      11.34503000       2.78735000
N        1.09910000      11.51203000       4.77024000
N       11.63271000       5.93239000       0.09460000
N       16.16720000      12.92011000       1.98486000
N       11.01235000       3.27398000       8.07963000
